alias dropbox='/scratch/dpb6/.dropbox-dist/dropboxd &'
alias sub='sublime_text'
alias sublime='sublime_text &'
alias chrome='google-chrome &'
alias mendeley='mendeleydesktop &'
#alias matlab='/opt/matlab2013b/bin/matlab'
#alias ls-dyna-d='ls-dynaR5'
alias paraview='./bin/paraview &'

alias sshdtu='ssh bradway@gate.mt.elektro.dtu.dk -X'

alias cdrepos='cd /getlab/dpb6/repos/'

alias cd..='cd ..'
#alias cp='cp -i'
alias d='ls'
alias sl='ls'
alias df='df -h -x supermount'
alias du='du -h'
alias egrep='egrep --color'
alias fgrep='fgrep --color'
alias grep='grep --color'
alias l='ls'
alias la='ls -a'
alias ll='ls -l'
alias ls='ls -F --color=auto'
alias lsd='ls -d */'
alias md='mkdir'
#alias mv='mv -i'
alias p='cd -'
alias rd='rmdir'
#alias rm='rm -i'	

alias reconfigurevmware='sudo vmware-modconfig --console --install-all'

alias gitclean='git rm $(git ls-files --deleted)'
